/*--------------------------------*- C++ -*----------------------------------*\
| =========                 |                                                 |
| \\      /  F ield         | OpenFOAM: The Open Source CFD Toolbox           |
|  \\    /   O peration     | Version:  12                                    |
|   \\  /    A nd           | Web:      www.OpenFOAM.org                      |
|    \\/     M anipulation  |                                                 |
\*---------------------------------------------------------------------------*/
FoamFile
{
    version     2.0;
    format      ascii;
    class       dictionary;
    object      blockMeshDict;
    location    "system";
}

convertToMeters 1;

vertices
(
    // Inlet section vertices (0-7)
    (0    0    0)
    (2    0    0)
    (2    0.5  0)
    (0    0.5  0)
    (0    0    0.409)
    (2    0    0.409)
    (2    0.5  0.409)
    (0    0.5  0.409)

    // Middle section vertices (8-15)
    (3    0    0)
    (3    0.5  0)
    (3    0    0.409)
    (3    0.5  0.409)

    // Outlet section vertices (16-19)
    (5    0    0)
    (5    0.5  0)
    (5    0    0.409)
    (5    0.5  0.409)

    // Ballast vertices (20-27)
    (2.2  0.05  0)
    (2.8  0.05  0)
    (2.8  0.20  0)
    (2.2  0.20  0)
    (2.2  0.05  0.409)
    (2.8  0.05  0.409)
    (2.8  0.20  0.409)
    (2.2  0.20  0.409)
);

blocks
(
    // Inlet section
    hex (0 1 2 3 4 5 6 7) (200 50 1) simpleGrading (1 1 1)

    // Middle section (with ballast)
    hex (1 8 9 2 5 10 11 6) (100 50 1) simpleGrading (1 1 1)

    // Outlet section
    hex (8 12 13 9 10 14 15 11) (200 50 1) simpleGrading (1 1 1)

    // Ballast block
    hex (20 21 22 23 24 25 26 27) (60 15 1) simpleGrading (1 1 1)
);

edges
(
);

patches
(
    patch inlet
    (
        (0 4 7 3)
    )

    patch outlet
    (
        (12 14 15 13)
    )

    patch atmosphere
    (
        (3 7 6 2)
        (2 6 11 9)
        (9 11 15 13)
    )

    wall walls
    (
        // Bottom walls
        (0 1 5 4)
        (1 8 10 5)
        (8 12 14 10)
        
        // Front walls (y=0)
        (0 3 2 1)
        (1 2 9 8)
        (8 9 13 12)
        
        // Back walls (y=0.409)
        (4 5 6 7)
        (5 10 11 6)
        (10 14 15 11)
    )

    wall ballast
    (
        (20 21 25 24)  // front
        (21 22 26 25)  // right
        (22 23 27 26)  // top
        (23 20 24 27)  // left
    )
);

mergePatchPairs
(
);