/*--------------------------------*- C++ -*----------------------------------*\
  =========                 |
  \\      /  F ield         | OpenFOAM: The Open Source CFD Toolbox
   \\    /   O peration     | Website:  https://openfoam.org
    \\  /    A nd           | Version:  12
     \\/     M anipulation  |
\*---------------------------------------------------------------------------*/
FoamFile
{
    format      ascii;
    class       dictionary;
    object      blockMeshDict;
    version     2.0;
}

scale 1;

vertices
(
    (0 0 0)
    (5 0 0)
    (5 0.5 0)
    (0 0.5 0)
    (0 0 0.409)
    (5 0 0.409)
    (5 0.5 0.409)
    (0 0.5 0.409)
);

blocks
(
    hex (0 1 2 3 4 5 6 7) (100 20 1) simpleGrading (1 1 1)
);

edges
(
);

patches
(
    patch inlet
    (
        (0 4 7 3)
    )

    patch outlet
    (
        (1 2 6 5)
    )

    patch atmosphere
    (
        (3 7 6 2)
    )

    wall bottom
    (
        (0 1 5 4)
    )

    empty frontAndBack
    (
        (0 3 2 1)
        (4 5 6 7)
    )
);

mergePatchPairs
(
);