/*--------------------------------*- C++ -*----------------------------------*\
  =========                 |
  \\      /  F ield         | OpenFOAM: The Open Source CFD Toolbox
   \\    /   O peration     | Website:  https://openfoam.org
    \\  /    A nd           | Version:  12
     \\/     M anipulation  |
\*---------------------------------------------------------------------------*/
FoamFile
{
    format      ascii;
    class       dictionary;
    object      blockMeshDict;
    version     2.0;
}

scale 1;

vertices
(
    // Inlet section vertices (0-7)
    (0    0     0)      // 0
    (2.2  0     0)      // 1
    (2.2  0.5   0)      // 2
    (0    0.5   0)      // 3
    (0    0     0.409)  // 4
    (2.2  0     0.409)  // 5
    (2.2  0.5   0.409)  // 6
    (0    0.5   0.409)  // 7
    
    // Outlet section vertices (8-15)
    (2.8  0     0)      // 8
    (5    0     0)      // 9
    (5    0.5   0)      // 10
    (2.8  0.5   0)      // 11
    (2.8  0     0.409)  // 12
    (5    0     0.409)  // 13
    (5    0.5   0.409)  // 14
    (2.8  0.5   0.409)  // 15
    
    // Ballast vertices (16-23)
    (2.2  0.0   0)      // 16
    (2.8  0.0   0)      // 17
    (2.8  0.2   0)      // 18
    (2.2  0.2   0)      // 19
    (2.2  0.0   0.409)  // 20
    (2.8  0.0   0.409)  // 21
    (2.8  0.2   0.409)  // 22
    (2.2  0.2   0.409)  // 23
);

blocks
(
    // Inlet section
    hex (0 1 2 3 4 5 6 7) (44 20 1) simpleGrading (1 1 1)
    
    // Outlet section
    hex (8 9 10 11 12 13 14 15) (44 20 1) simpleGrading (1 1 1)
    
    // Ballast block
    hex (16 17 18 19 20 21 22 23) (12 8 1) simpleGrading (1 1 1)
);

edges
(
);

patches
(
    patch inlet
    (
        (0 4 7 3)
    )

    patch outlet
    (
        (9 10 14 13)
    )

    patch atmosphere
    (
        (3 7 6 2)
        (11 15 14 10)
    )

    wall bottom
    (
        (0 1 5 4)
        (8 9 13 12)
    )

    empty frontAndBack
    (
        (0 3 2 1)
        (4 5 6 7)
        (8 11 10 9)
        (12 13 14 15)
        (16 19 18 17)
        (20 21 22 23)
    )

    wall ballast
    (
        (16 17 21 20)  // front
        (17 18 22 21)  // top
        (18 19 23 22)  // back
        (19 16 20 23)  // bottom
    )
);

mergePatchPairs
(
);