/*--------------------------------*- C++ -*----------------------------------*\
| =========                 |                                                 |
| \\      /  F ield         | OpenFOAM: The Open Source CFD Toolbox           |
|  \\    /   O peration     | Version:  12                                    |
|   \\  /    A nd           | Web:      www.OpenFOAM.org                      |
|    \\/     M anipulation  |                                                 |
\*---------------------------------------------------------------------------*/
FoamFile
{
    version     2.0;
    format      ascii;
    class       dictionary;
    object      blockMeshDict;
    location    "system";
}

convertToMeters 1;

vertices
(
    // Main channel
    (0    0     0)      // 0
    (2.2  0     0)      // 1
    (2.2  0.5   0)      // 2
    (0    0.5   0)      // 3
    (0    0     0.409)  // 4
    (2.2  0     0.409)  // 5
    (2.2  0.5   0.409)  // 6
    (0    0.5   0.409)  // 7

    // Middle section with rail structure
    (2.8  0     0)      // 8
    (5    0     0)      // 9
    (5    0.5   0)      // 10
    (2.8  0.5   0)      // 11
    (2.8  0     0.409)  // 12
    (5    0     0.409)  // 13
    (5    0.5   0.409)  // 14
    (2.8  0.5   0.409)  // 15

    // Sleeper block
    (2.2  0.2   0)      // 16
    (2.8  0.2   0)      // 17
    (2.8  0.25  0)      // 18
    (2.2  0.25  0)      // 19
    (2.2  0.2   0.409)  // 20
    (2.8  0.2   0.409)  // 21
    (2.8  0.25  0.409)  // 22
    (2.2  0.25  0.409)  // 23

    // Rail block
    (2.4  0.25  0)      // 24
    (2.6  0.25  0)      // 25
    (2.6  0.3   0)      // 26
    (2.4  0.3   0)      // 27
    (2.4  0.25  0.409)  // 28
    (2.6  0.25  0.409)  // 29
    (2.6  0.3   0.409)  // 30
    (2.4  0.3   0.409)  // 31
);

blocks
(
    // Main channel sections
    hex (0 1 2 3 4 5 6 7)         (44 20 1) simpleGrading (1 1 1)
    hex (8 9 10 11 12 13 14 15)   (44 20 1) simpleGrading (1 1 1)
    
    // Sleeper
    hex (16 17 18 19 20 21 22 23) (12 2 1) simpleGrading (1 1 1)
    
    // Rail
    hex (24 25 26 27 28 29 30 31) (4 2 1) simpleGrading (1 1 1)
);

edges
(
);

boundary
{
    inlet
    {
        type            patch;
        faces
        (
            (0 4 7 3)
        );
    }

    outlet
    {
        type            patch;
        faces
        (
            (9 13 14 10)
        );
    }

    atmosphere
    {
        type            patch;
        faces
        (
            (3 7 6 2)
            (11 15 14 10)
        );
    }

    walls
    {
        type            wall;
        faces
        (
            // Bottom walls
            (0 1 5 4)
            (8 9 13 12)
            
            // Front and back walls
            (0 3 2 1)
            (4 5 6 7)
            (8 11 10 9)
            (12 13 14 15)
        );
    }

    sleeper
    {
        type            wall;
        faces
        (
            (16 17 21 20)
            (17 18 22 21)
            (18 19 23 22)
            (19 16 20 23)
        );
    }

    rail
    {
        type            wall;
        faces
        (
            (24 25 29 28)
            (25 26 30 29)
            (26 27 31 30)
            (27 24 28 31)
        );
    }
}