/*--------------------------------*- C++ -*----------------------------------*\
| =========                 |                                                 |
| \\      /  F ield         | OpenFOAM: The Open Source CFD Toolbox           |
|  \\    /   O peration     | Version:  12                                    |
|   \\  /    A nd           | Web:      www.OpenFOAM.org                      |
|    \\/     M anipulation  |                                                 |
\*---------------------------------------------------------------------------*/
FoamFile
{
    format      ascii;
    class       dictionary;
    object      blockMeshDict;
    version     2.0;
    location    "system";
}
// * * * * * * * * * * * * * * * * * * * * * * * * * * * * * * * * * * * * * //

convertToMeters 1;

vertices
(
    (0    0     0)      // 0
    (5    0     0)      // 1
    (5    0.5   0)      // 2
    (0    0.5   0)      // 3
    (0    0     0.409)  // 4
    (5    0     0.409)  // 5
    (5    0.5   0.409)  // 6
    (0    0.5   0.409)  // 7
);

blocks
(
    hex (0 1 2 3 4 5 6 7) (500 50 1) simpleGrading (1 1 1)
);

edges
(
);

boundary
{
    inlet
    {
        type patch;
        faces
        (
            (0 4 7 3)
        );
    }
    outlet
    {
        type patch;
        faces
        (
            (1 5 6 2)
        );
    }
    atmosphere
    {
        type patch;
        faces
        (
            (3 7 6 2)
        );
    }
    walls
    {
        type wall;
        faces
        (
            (0 1 5 4)    // bottom
            (0 3 2 1)    // front
            (4 5 6 7)    // back
        );
    }
}

// ************************************************************************* //